Solutions/4.1/4_7_Reliability_Test.glm
// $Id: reliability_test.glm 1182 2008-12-22 22:08:36Z dchassin $
//	Copyright (C) 2008 Battelle Memorial Institute
//
// Model file for integrated testing
// One house with each enduse represented for verifying power aggregation
// at the feeder/meter 
// 
#set pauseatexit=1
#set iteration_limit=20000;
#set savefile="test.xml";

module powerflow;
module climate;
module residential;
module reliability {
	report_event_log TRUE;
}

clock {
	timestamp '2000-01-01 0:00:00';
	timezone EST+5EDT;
}

object meter {
	name mtrLoad;
	phases A|B|C;
	voltage_A +7199.558+0.000j;
	voltage_B -3599.779-6235.000j;
	voltage_C -3599.779+6235.000j;
	nominal_voltage 7200;
}

object load {
	name Load;
	parent mtrLoad;
	phases A|B|C|D;
	phases A|B|C;
	voltage_A +7199.558+0.000j;
	voltage_B -3599.779-6235.000j;
	voltage_C -3599.779+6235.000j;
	nominal_voltage 7200;
	constant_power_A +1800000.000+871779.789j;
	constant_power_B +1800000.000+871779.789j;
	constant_power_C +1800000.000+871779.789j;
}

object metrics:0 {
	name Metrics;
}

object eventgen {
	name OpenLine;
	parent Metrics;
	frequency 25;
	duration 4;
	group "class=overhead_line";
	targets "status";
	values "OPEN"; //|A|B|C";
}		

////////////////////////////////////////////////////////////////////////////////////////////////////////////////
// 4 Node Feeder: Balanced step-down delta-delta
////////////////////////////////////////////////////////////////////////////////////////////////////////////////

object overhead_line_conductor {
	name OH100;
	geometric_mean_radius 0.0244;
	resistance 0.306;
}

object overhead_line_conductor {
	name OH101;
	geometric_mean_radius 0.00814;
	resistance 0.592;
}

object line_spacing {
	name LS200;
	distance_AB 2.5;
	distance_BC 4.5;
	distance_AC 7.0;
	distance_AN 5.656854;
	distance_BN 4.272002;
	distance_CN 5.0;
}

object line_configuration {
	name LC300;
	conductor_A OH100;
	conductor_B OH100;
	conductor_C OH100;
	conductor_N OH101;
	spacing LS200;
}

object transformer_configuration {
	name XFC400;
	connect_type 2;
	power_rating 6000;
	primary_voltage 12470;
	secondary_voltage 4160;
	resistance 0.01;
	reactance 0.06;
}

object transformer_configuration {
	name PoleTop;
	connect_type 5;
	power_rating 400;
	powerA_rating 400;
	primary_voltage 2402;
	secondary_voltage 120;
	resistance 0.01;
	reactance 0.06;
}

object node {
	name Node1;
	phases A|B|C;
	voltage_A +7199.558+0.000j;
	voltage_B -3599.779-6235.000j;
	voltage_C -3599.779+6235.000j;
	nominal_voltage 7200;
}

object overhead_line {
	name Link12;
	phases A|B|C;
	from Node1;
	to Node2;
	length 2000;
	configuration LC300;
}

object node {
	name Node2;
	phases A|B|C;
	voltage_A +7199.558+0.000j;
	voltage_B -3599.779-6235.000j;
	voltage_C -3599.779+6235.000j;
	nominal_voltage 7200;
}

object overhead_line {
	name Link23a;
	phases A|B|C;
	from Node2;
	to Node3a;
	length 2000;
	configuration LC300;
}

object meter {
	name Node3a;
	phases A|B|C|D;
	voltage_A +2401.777+0.000j;
	voltage_B -1200.889-2080.000j;
	voltage_C -1200.889+2080.000j;
	nominal_voltage 7200;
}

object load {
	name ld4val;
	phases ABCD;
	parent Node3a;
	constant_power_A 2500;
	nominal_voltage 7200;
}


object transformer {
	name Link23;
	phases A|B|C;
	from Node2;
	to Node3;
	configuration XFC400;
}

object node {
	name Node3;
	phases A|B|C;
	voltage_A +2401.777+0.000j;
	voltage_B -1200.889-2080.000j;
	voltage_C -1200.889+2080.000j;
	nominal_voltage 2400;
}

object overhead_line {
	name Link2M;
	phases A|B|C;
	from Node2;
	to mtrLoad;
	length 2500;
	configuration LC300;
}

object overhead_line {
	name Link34;
	phases A|B|C;
	from Node3;
	to Node4;
	length 2500;
	configuration LC300;
}

object node {
	name Node4;
	phases A|B|C|D;
	voltage_A +2401.777+0.000j;
	voltage_B -1200.889-2080.000j;
	voltage_C -1200.889+2080.000j;
	nominal_voltage 2400;
}

object transformer {
	name Link45;
	phases AS;
	from Node4;
	to Meter;
	configuration PoleTop;
}
	
module tape;

////////////////////////////////////////////////////////////////////////////////////////////////////////////////


object triplex_meter {
	name Meter;
}

object house {
	name House;
	parent Meter;
	latitude "48N";
	longitude "125W";
	floor_area 1500.0 sf;
	envelope_UA 450.0;
	window_wall_ratio 0.25;
	glazing_shgc 0.40;
	heating_setpoint 72.0;
	cooling_setpoint 76.0;
}

object waterheater {
	name Waterheater;
	parent House;
	tank_volume 60;
	tank_UA 2.0;
	water_demand 0.25 gpm;
	heating_element_capacity 4500 W;
	location INSIDE;
	tank_setpoint 120 degF;
}

object lights {
	name Lights;
	type INCANDESCENT;
	parent House;
	placement INDOOR;
	demand 0.50;
	installed_power 1.5 kW;
}

//this tape is set to loop several times to cycle through the synchronization
object player {
	name Player;
	parent Lights;
	property demand;
	file lighting.player;
	loop 400;
}

////////////////////////////////////////////////////////////////////////////////////////////////////////////////
// END
////////////////////////////////////////////////////////////////////////////////////////////////////////////////
